Version 4
SHEET 1 2680 888
WIRE 992 -256 -352 -256
WIRE -176 -64 -272 -64
WIRE -80 -64 -176 -64
WIRE 0 -64 -80 -64
WIRE 256 -64 0 -64
WIRE -272 -48 -272 -64
WIRE -176 -48 -176 -64
WIRE 256 -48 256 -64
WIRE -80 -32 -80 -64
WIRE 0 -32 0 -64
WIRE 112 0 80 0
WIRE 416 0 400 0
WIRE 496 0 480 0
WIRE 992 16 992 -256
WIRE 992 16 784 16
WIRE -272 48 -272 32
WIRE -176 48 -176 16
WIRE -80 48 -80 32
WIRE 784 48 784 16
WIRE 0 64 0 48
WIRE 80 64 80 0
WIRE 80 64 0 64
WIRE 992 80 992 16
WIRE 1056 80 992 80
WIRE 112 96 96 96
WIRE 432 96 400 96
WIRE 432 112 432 96
WIRE -80 128 -128 128
WIRE 0 128 0 64
WIRE -128 144 -128 128
WIRE -352 192 -352 -256
WIRE 112 192 -352 192
WIRE 432 192 432 176
WIRE 432 192 400 192
WIRE 496 192 432 192
WIRE 608 192 576 192
WIRE 720 192 608 192
WIRE 784 192 784 128
WIRE 784 192 720 192
WIRE 816 192 784 192
WIRE 912 192 816 192
WIRE 1024 192 912 192
WIRE 608 208 608 192
WIRE 720 208 720 192
WIRE 816 208 816 192
WIRE 912 208 912 192
WIRE 1024 208 1024 192
WIRE 16 288 0 288
WIRE 112 288 80 288
WIRE 608 288 400 288
WIRE 720 288 720 272
WIRE 720 288 608 288
WIRE 608 304 608 288
WIRE 816 304 816 272
WIRE 912 304 912 272
WIRE 1024 304 1024 288
WIRE 16 384 0 384
WIRE 112 384 96 384
WIRE 416 384 400 384
WIRE 608 400 608 384
FLAG 416 384 0
FLAG 0 384 0
FLAG 0 288 0
FLAG -272 48 0
FLAG 496 0 0
FLAG 608 400 0
FLAG 1024 304 0
FLAG -176 48 0
FLAG 96 96 0
FLAG 816 304 0
FLAG 1056 80 PG
FLAG -80 48 0
FLAG -128 144 0
FLAG 912 304 0
SYMBOL res 112 368 R90
WINDOW 0 0 56 VBottom 2
WINDOW 3 32 56 VTop 2
SYMATTR InstName R1
SYMATTR Value 18.2K
SYMBOL cap 80 272 R90
WINDOW 0 0 32 VBottom 2
WINDOW 3 32 32 VTop 2
SYMATTR InstName C1
SYMATTR Value 10n
SYMBOL cap 416 16 R270
WINDOW 0 32 32 VTop 2
WINDOW 3 0 32 VBottom 2
SYMATTR InstName C2
SYMATTR Value 1µ
SYMBOL ind 480 208 R270
WINDOW 0 32 56 VTop 2
WINDOW 3 5 56 VBottom 2
SYMATTR InstName L1
SYMATTR Value 6.8µ
SYMATTR SpiceLine Rser=0.519
SYMBOL cap 416 112 R0
SYMATTR InstName C3
SYMATTR Value .1µ
SYMATTR SpiceLine V=6.3 Irms=728m Rser=0.14361 Lser=0 mfg="KEMET" pn="C0603C104K9RAC" type="X7R"
SYMBOL cap 800 208 R0
SYMATTR InstName C4
SYMATTR Value 10µ
SYMATTR SpiceLine V=6.3 Irms=0 Rser=0.001 Lser=0 Rpar=1000 Cpar=5p mfg="TDK" pn="C3216X5ROJ106M" type="X5R"
SYMBOL res 592 192 R0
SYMATTR InstName R2
SYMATTR Value 1Meg
SYMBOL res 592 288 R0
SYMATTR InstName R3
SYMATTR Value 309k
SYMBOL cap 704 208 R0
SYMATTR InstName C5
SYMATTR Value 10p
SYMBOL cap -192 -48 R0
SYMATTR InstName C6
SYMATTR Value 1µ
SYMATTR SpiceLine V=50 Irms=3.41 Rser=0.0133158 Lser=0 mfg="KEMET" pn="C1206C105K5RAC" type="X7R"
SYMBOL res 1008 192 R0
SYMATTR InstName Rload
SYMATTR Value 14
SYMBOL PowerProducts\\LT8606 256 192 R0
SYMATTR InstName U1
SYMBOL res 768 32 R0
SYMATTR InstName R4
SYMATTR Value 100k
SYMBOL cap -96 -32 R0
SYMATTR InstName C7
SYMATTR Value 1µ
SYMBOL res -16 -48 R0
SYMATTR InstName R5
SYMATTR Value 1.6Meg
SYMBOL res 16 112 R90
WINDOW 0 0 56 VBottom 2
WINDOW 3 32 56 VTop 2
SYMATTR InstName R6
SYMATTR Value 200k
SYMBOL cap 896 208 R0
SYMATTR InstName C8
SYMATTR Value 10µ
SYMATTR SpiceLine V=6.3 Irms=0 Rser=0.001 Lser=0 Rpar=1000 Cpar=5p mfg="TDK" pn="C3216X5ROJ106M" type="X5R"
SYMBOL voltage -272 -64 R0
WINDOW 3 24 96 Invisible 2
WINDOW 123 0 0 Left 0
WINDOW 39 0 0 Left 0
SYMATTR InstName V1
SYMATTR Value PULSE(8 12.6 1m 1m 1m 4m 10)
TEXT 800 368 Left 2 !.tran 15m
